ELEMENTS
O N E 
END

SPECIES
E     O2     N2    O    O2+   N2+     O4+     N4+     O2pN2     O2-
END

THERMO ALL
300.0 1000.0 5000.0
E                 g12/98E  1.   0.   0.   0.G   298.150  6000.000 1000.        1
 2.50000000E+00 0.00000000E+00 0.00000000E+00 0.00000000E+00 0.00000000E+00    2
-7.45375000E+02-1.17208122E+01 2.50000000E+00 0.00000000E+00 0.00000000E+00    3
 0.00000000E+00 0.00000000E+00-7.45375000E+02-1.17208122E+01 0.00000000E+00    4
O2                121386O   2               G  0300.00   5000.00  1000.00      1
 3.69757819E+00 6.13519689E-04-1.25884199E-07 1.77528148E-11-1.13643531E-15    2
-1.23393018E+03 3.18916559E+00 3.21293640E+00 1.12748635E-03-5.75615047E-07    3
 1.31387723E-09-8.76855392E-13-1.00524902E+03 6.03473759E+00                   4
N2                121286N   2               G  0300.00   5000.00  1000.00      1
 0.02926640E+02 0.01487977E-01-0.05684761E-05 0.01009704E-08-0.06753351E-13    2
-0.09227977E+04 0.05980528E+02 0.03298677E+02 0.01408240E-01-0.03963222E-04    3
 0.05641515E-07-0.02444855E-10-0.01020900E+05 0.03950372E+02                   4
O                 120186O   1               G  0300.00   5000.00  1000.00      1
 2.54205966E+00-2.75506191E-05-3.10280335E-09 4.55106742E-12-4.36805150E-16    2
 2.92308027E+04 4.92030811E+00 2.94642878E+00-1.63816649E-03 2.42103170E-06    3
-1.60284319E-09 3.89069636E-13 2.91476445E+04 2.96399498E+00                   4
O2+               RUS 89O   2E -1    0      G   298.150  6000.000 1000.        1
 3.31675922E+00 1.11522244E-03-3.83492556E-07 5.72784687E-11-2.77648381E-15    2
 1.39876823E+05 5.44726469E+00 4.61017167E+00-6.35951952E-03 1.42425624E-05    3
-1.20997923E-08 3.70956878E-12 1.39742229E+05-2.01326941E-01 1.40937762E+05    4
N2+               tpis89N  2.E -1.   0.     G   298.150  6000.000 1000.        1
 3.58661363E+00 2.53071949E-04 1.84778214E-07-4.55257223E-11 3.26818029E-15    2
 1.80390994E+05 3.09584143E+00 3.77540711E+00-2.06459157E-03 4.75752301E-06    3
-3.15664228E-09 6.70509973E-13 1.80481115E+05 2.69322178E+00 1.81551099E+05    4
O4+ cation        T 1/11O  4.E -1.   0.     G   298.150  6000.000 1000.        1
 7.57784346E+00 2.48052052E-03-9.71133430E-07 1.65738251E-10-1.03047740E-14    2
 1.70839793E+05-1.46808901E+01 1.15107802E+00 2.15570328E-02-2.10270939E-05    3
 8.21140809E-09-6.49760980E-13 1.72530097E+05 1.81430748E+01 1.73661581E+05    4
N4+ cyclo         T 1/11N  4.E -1.   0.     G   298.150  6000.000 1000.        1
 7.05285816E+00 2.91094469E-03-1.11573999E-06 1.87883944E-10-1.15769013E-14    2
 2.14540545E+05-1.12429353E+01 3.32596515E+00 1.43909181E-02-1.56797253E-05    3
 9.52287848E-09-2.53566648E-12 2.15553183E+05 7.82290640E+00 2.17063543E+05    4
O2pN2 cation      T 1/11O  4.E -1.   0.     G   298.150  6000.000 1000.        1
 7.57784346E+00 2.48052052E-03-9.71133430E-07 1.65738251E-10-1.03047740E-14    2
 1.70839793E+05-1.46808901E+01 1.15107802E+00 2.15570328E-02-2.10270939E-05    3
 8.21140809E-09-6.49760980E-13 1.72530097E+05 1.81430748E+01 1.73661581E+05    4
O2-               L 4/89O   2E   1    0     G   298.150  6000.000 1000.        1
 3.95666294E+00 5.98141823E-04-2.12133905E-07 3.63267581E-11-2.24989228E-15    2
-7.06287229E+03 2.27871017E+00 3.66442522E+00-9.28741138E-04 6.45477082E-06    3
-7.74703380E-09 2.93332662E-12-6.87076983E+03 4.35140681E+00-5.77639825E+03    4
END

TRANS ALL
E                  0   850.        425.      0.000     0.000     1.000          
O2                 1   107.400     3.458     0.000     1.600     3.800          
N2                 1    97.530     3.621     0.000     1.760     4.000          
O                  1   107.400     3.458     0.000     1.600     3.800          
O2+                1   107.400     3.458     0.000     1.600     3.800          
N2+                1    97.530     3.621     0.000     1.760     4.000          
O4+                1   107.400     3.458     0.000     1.600     3.800          
N4+                1    97.530     3.621     0.000     1.760     4.000          
O2pN2              1   107.400     3.458     0.000     1.600     3.800          
O2-                1   107.400     3.458     0.000     1.600     3.800          
END

REACTIONS 


! Ionization reations
E + N2 => E + E + N2+                 1.0               0.0   0.0
E + O2 => E + E + O2+                 1.0               0.0   0.0

! Production of O2+ 
N2+ + N2 + N2 => N4+ + N2             1.8132242E+019    0.0     0.0
N2+ + N2 + O2 => N4+ + O2             1.8132242E+019    0.0     0.0
N4+ + O2 => O2+ + N2 + N2             1.5055E+014       0.0     0.0
N2+ + O2 => O2+ + N2                  3.6132E+013       0.0     0.0

! Conversion of O2+ to O4+
O2+ + N2 + N2 => O2pN2 + N2           3.26380356E+017   0.0     0.0
O2pN2 + N2 => O2+ + N2 + N2           2.58946E+014      0.0     0.0
O2pN2 + O2 => O4+ + N2                6.022E+014        0.0     0.0
O2+ + O2 + N2 => O4+ + N2             8.70347616E+017   0.0     0.0
O2+ + O2 + O2 => O4+ + O2             8.70347616E+017   0.0     0.0

! Dissociative recombination
E + O4+ => O2 + O2                    1.0               0.0     0.0
E + O2+ => O + O                      1.0               0.0     0.0

! Electron attachment
E + O2 + O2 => O2- + O2               1.0               0.0     0.0
E + O2 + N2 => O2- + N2               1.0               0.0     0.0

! Ion-ion recombination
O2- + O4+ => O2 + O2 + O2             6.022E+016        0.0     0.0
O2- + O4+ + O2 => O2 + O2 + O2 + O2   7.2528968E+022    0.0     0.0
O2- + O4+ + N2 => O2 + O2 + O2 + N2   7.2528968E+022    0.0     0.0
O2- + O2+ + O2 => O2 + O2 + O2        7.2528968E+022    0.0     0.0
O2- + O2+ + N2 => O2 + O2 + N2        7.2528968E+022    0.0     0.0

! Electron detachment
O2- + O2 => E + O2 + O2               1.0               0.0     0.0
O2- + N2 => E + O2 + N2               1.0               0.0     0.0


END
